<?xml version="1.0" encoding="ISO-8859-1"?>
<febio_spec version="2.5">
	<Module type="solid"/>
	<Control>
		<time_steps>20</time_steps>
		<step_size>0.05</step_size>
		<max_refs>15</max_refs>
		<max_ups>10</max_ups>
		<diverge_reform>1</diverge_reform>
		<reform_each_time_step>1</reform_each_time_step>
		<dtol>0.001</dtol>
		<etol>0.01</etol>
		<rtol>0</rtol>
		<lstol>0.9</lstol>
		<min_residual>1e-020</min_residual>
		<qnmethod>0</qnmethod>
		<time_stepper>
			<dtmin>0.01</dtmin>
			<dtmax>0.05</dtmax>
			<max_retries>5</max_retries>
			<opt_iter>100</opt_iter>
		</time_stepper>
		<analysis type="static"/>
	</Control>
	<Globals>
		<Constants>
			<T>0</T>
			<R>0</R>
			<Fc>0</Fc>
		</Constants>
	</Globals>
	<Material>
		<material id="1" name="Material1" type="Shenoy">
			<density>1</density>
			<mu>0.7692</mu>
			<k>1.667</k>
			<Ef>134.6></Ef>
			<lam_c>1.02</lam_c>
			<lam_t>0.255</lam_t>
			<n>5</n>
			<m>30</m>
		</material>
	</Material>
	<Geometry>
		<Nodes name="Object02">
			<node id="1"> 1.0000000e+001, 1.0000000e+001, 1.0000000e+001</node>
			<node id="2"> 5.7735027e-001, 5.7735027e-001, 5.7735027e-001</node>
			<node id="3"> 1.0000000e+001, 1.0000000e+001, 0.0000000e+000</node>
			<node id="4"> 1.0000000e+001, 1.0000000e+001, 1.0000000e+000</node>
			<node id="5"> 1.0000000e+001, 1.0000000e+001, 2.0000000e+000</node>
			<node id="6"> 1.0000000e+001, 1.0000000e+001, 3.0000000e+000</node>
			<node id="7"> 1.0000000e+001, 1.0000000e+001, 4.0000000e+000</node>
			<node id="8"> 1.0000000e+001, 1.0000000e+001, 5.0000000e+000</node>
			<node id="9"> 1.0000000e+001, 1.0000000e+001, 6.0000000e+000</node>
			<node id="10"> 1.0000000e+001, 1.0000000e+001, 7.0000000e+000</node>
			<node id="11"> 1.0000000e+001, 1.0000000e+001, 8.0000000e+000</node>
			<node id="12"> 1.0000000e+001, 1.0000000e+001, 9.0000000e+000</node>
			<node id="13"> 1.0000000e+001, 9.0000000e+000, 1.0000000e+001</node>
			<node id="14"> 1.0000000e+001, 8.0000000e+000, 1.0000000e+001</node>
			<node id="15"> 1.0000000e+001, 7.0000000e+000, 1.0000000e+001</node>
			<node id="16"> 1.0000000e+001, 6.0000000e+000, 1.0000000e+001</node>
			<node id="17"> 1.0000000e+001, 5.0000000e+000, 1.0000000e+001</node>
			<node id="18"> 1.0000000e+001, 4.0000000e+000, 1.0000000e+001</node>
			<node id="19"> 1.0000000e+001, 3.0000000e+000, 1.0000000e+001</node>
			<node id="20"> 1.0000000e+001, 2.0000000e+000, 1.0000000e+001</node>
<!-- ... 6931 like lines cut -->
		</Nodes>
		<Elements type="hex8" mat="1" name="Part2">
			<elem id="1">    82,    83,  1253,  1252,    92,    93,  1443,  1442</elem>
			<elem id="2">    83,    84,  1254,  1253,    93,    94,  1444,  1443</elem>
			<elem id="3">    84,    85,  1255,  1254,    94,    95,  1445,  1444</elem>
			<elem id="4">    85,    86,  1256,  1255,    95,    96,  1446,  1445</elem>
			<elem id="5">    86,    87,  1257,  1256,    96,    97,  1447,  1446</elem>
			<elem id="6">    87,    88,  1258,  1257,    97,    98,  1448,  1447</elem>
			<elem id="7">    88,    89,  1259,  1258,    98,    99,  1449,  1448</elem>
			<elem id="8">    89,    90,  1260,  1259,    99,   100,  1450,  1449</elem>
			<elem id="9">    90,    91,  1261,  1260,   100,   101,  1451,  1450</elem>
			<elem id="10">    91,     3,   182,  1261,   101,     4,   201,  1451</elem>
			<elem id="11">  1252,  1253,  1263,  1262,  1442,  1443,  1453,  1452</elem>
			<elem id="12">  1253,  1254,  1264,  1263,  1443,  1444,  1454,  1453</elem>
			<elem id="13">  1254,  1255,  1265,  1264,  1444,  1445,  1455,  1454</elem>
			<elem id="14">  1255,  1256,  1266,  1265,  1445,  1446,  1456,  1455</elem>
			<elem id="15">  1256,  1257,  1267,  1266,  1446,  1447,  1457,  1456</elem>
			<elem id="16">  1257,  1258,  1268,  1267,  1447,  1448,  1458,  1457</elem>
			<elem id="17">  1258,  1259,  1269,  1268,  1448,  1449,  1459,  1458</elem>
			<elem id="18">  1259,  1260,  1270,  1269,  1449,  1450,  1460,  1459</elem>
			<elem id="19">  1260,  1261,  1271,  1270,  1450,  1451,  1461,  1460</elem>
			<elem id="20">  1261,   182,   183,  1271,  1451,   201,   202,  1461</elem>
<!-- ... 5980 like lines cut -->
		</Elements>
		<NodeSet name="FixedDisplacement1">
			<node id="62"/>
			<node id="81"/>
			<node id="671"/>
			<node id="681"/>
			<node id="691"/>
			<node id="701"/>
			<node id="711"/>
			<node id="721"/>
			<node id="731"/>
			<node id="741"/>
			<node id="751"/>
			<node id="761"/>
			<node id="762"/>
			<node id="772"/>
			<node id="782"/>
			<node id="792"/>
			<node id="802"/>
			<node id="812"/>
			<node id="822"/>
			<node id="832"/>
<!-- ... 421 like lines cut -->
		</NodeSet>
		<NodeSet name="FixedDisplacement2">
			<node id="22"/>
			<node id="52"/>
			<node id="82"/>
			<node id="92"/>
			<node id="102"/>
			<node id="112"/>
			<node id="122"/>
			<node id="132"/>
			<node id="142"/>
			<node id="152"/>
			<node id="162"/>
			<node id="172"/>
			<node id="381"/>
			<node id="391"/>
			<node id="401"/>
			<node id="411"/>
			<node id="421"/>
			<node id="431"/>
			<node id="441"/>
			<node id="451"/>
<!-- ... 421 like lines cut -->
		</NodeSet>
		<NodeSet name="FixedDisplacement3">
			<node id="3"/>
			<node id="23"/>
			<node id="82"/>
			<node id="83"/>
			<node id="84"/>
			<node id="85"/>
			<node id="86"/>
			<node id="87"/>
			<node id="88"/>
			<node id="89"/>
			<node id="90"/>
			<node id="91"/>
			<node id="182"/>
			<node id="183"/>
			<node id="184"/>
			<node id="185"/>
			<node id="186"/>
			<node id="187"/>
			<node id="188"/>
			<node id="189"/>
<!-- ... 421 like lines cut -->
		</NodeSet>
		<NodeSet name="FixedDisplacement4">
			<node id="1"/>
			<node id="3"/>
			<node id="4"/>
			<node id="5"/>
			<node id="6"/>
			<node id="7"/>
			<node id="8"/>
			<node id="9"/>
			<node id="10"/>
			<node id="11"/>
			<node id="12"/>
			<node id="13"/>
			<node id="14"/>
			<node id="15"/>
			<node id="16"/>
			<node id="17"/>
			<node id="18"/>
			<node id="19"/>
			<node id="20"/>
			<node id="21"/>
<!-- ... 973 like lines cut -->
		</NodeSet>
		<Surface name="PressureLoad1">
			<quad4 id="1">   380,   381,   391,   390</quad4>
			<quad4 id="2">   379,   380,   390,   389</quad4>
			<quad4 id="3">   378,   379,   389,   388</quad4>
			<quad4 id="4">   377,   378,   388,   387</quad4>
			<quad4 id="5">   376,   377,   387,   386</quad4>
			<quad4 id="6">   375,   376,   386,   385</quad4>
			<quad4 id="7">   374,   375,   385,   384</quad4>
			<quad4 id="8">   373,   374,   384,   383</quad4>
			<quad4 id="9">   372,   373,   383,   382</quad4>
			<quad4 id="10">    23,   372,   382,    24</quad4>
			<quad4 id="11">   390,   391,   401,   400</quad4>
			<quad4 id="12">   389,   390,   400,   399</quad4>
			<quad4 id="13">   388,   389,   399,   398</quad4>
			<quad4 id="14">   387,   388,   398,   397</quad4>
			<quad4 id="15">   386,   387,   397,   396</quad4>
			<quad4 id="16">   385,   386,   396,   395</quad4>
			<quad4 id="17">   384,   385,   395,   394</quad4>
			<quad4 id="18">   383,   384,   394,   393</quad4>
			<quad4 id="19">   382,   383,   393,   392</quad4>
			<quad4 id="20">    24,   382,   392,    25</quad4>
<!-- ... 280 like lines cut -->
		</Surface>
	</Geometry>
	<Boundary>
		<fix bc="x" node_set="FixedDisplacement1"/>
		<fix bc="y" node_set="FixedDisplacement2"/>
		<fix bc="z" node_set="FixedDisplacement3"/>
		<fix bc="x,y,z" node_set="FixedDisplacement4"/>
		<bc type="normal displacement" surface="PressureLoad1">
			<scale lc="1">0.3</scale>
			<surface_hint>1</surface_hint>
		</bc>
	</Boundary>
	<LoadData>
		<loadcurve id="1" type="smooth">
			<point>0,0</point>
			<point>1,1</point>
		</loadcurve>
	</LoadData>
	<Output>
		<plotfile type="febio">
			<var type="displacement"/>
			<var type="stress"/>
		</plotfile>
	</Output>
</febio_spec>
